Version 4
SHEET 1 6420 5492
WIRE 1280 -448 1232 -448
WIRE 1408 -448 1344 -448
WIRE 3568 -416 3520 -416
WIRE 3696 -416 3632 -416
WIRE 1664 -400 1552 -400
WIRE 5904 -400 5856 -400
WIRE 6032 -400 5968 -400
WIRE 3952 -368 3840 -368
WIRE 1552 -352 1552 -400
WIRE 1568 -352 1552 -352
WIRE 6288 -352 6176 -352
WIRE 1136 -336 1120 -336
WIRE 1232 -336 1232 -448
WIRE 1232 -336 1216 -336
WIRE 1280 -336 1232 -336
WIRE 1664 -336 1664 -400
WIRE 1664 -336 1632 -336
WIRE 1776 -336 1664 -336
WIRE 1408 -320 1408 -448
WIRE 1408 -320 1344 -320
WIRE 1424 -320 1408 -320
WIRE 1536 -320 1488 -320
WIRE 1568 -320 1536 -320
WIRE 3840 -320 3840 -368
WIRE 3856 -320 3840 -320
WIRE 1280 -304 1248 -304
WIRE 3424 -304 3408 -304
WIRE 3520 -304 3520 -416
WIRE 3520 -304 3504 -304
WIRE 3568 -304 3520 -304
WIRE 3952 -304 3952 -368
WIRE 3952 -304 3920 -304
WIRE 4064 -304 3952 -304
WIRE 6176 -304 6176 -352
WIRE 6192 -304 6176 -304
WIRE 336 -288 224 -288
WIRE 1664 -288 1664 -336
WIRE 1776 -288 1776 -336
WIRE 3696 -288 3696 -416
WIRE 3696 -288 3632 -288
WIRE 3712 -288 3696 -288
WIRE 3824 -288 3776 -288
WIRE 3856 -288 3824 -288
WIRE 5760 -288 5744 -288
WIRE 5856 -288 5856 -400
WIRE 5856 -288 5840 -288
WIRE 5904 -288 5856 -288
WIRE 6288 -288 6288 -352
WIRE 6288 -288 6256 -288
WIRE 6400 -288 6288 -288
WIRE 3568 -272 3536 -272
WIRE 6032 -272 6032 -400
WIRE 6032 -272 5968 -272
WIRE 6048 -272 6032 -272
WIRE 6160 -272 6112 -272
WIRE 6192 -272 6160 -272
WIRE 1536 -256 1536 -320
WIRE 2624 -256 2512 -256
WIRE 3952 -256 3952 -304
WIRE 4064 -256 4064 -304
WIRE 5904 -256 5872 -256
WIRE 336 -240 336 -288
WIRE 1248 -240 1248 -304
WIRE 4960 -240 4848 -240
WIRE 6288 -240 6288 -288
WIRE 6400 -240 6400 -288
WIRE 3824 -224 3824 -288
WIRE 2624 -208 2624 -256
WIRE 3536 -208 3536 -272
WIRE 6160 -208 6160 -272
WIRE 4960 -192 4960 -240
WIRE 5872 -192 5872 -256
WIRE 1664 -176 1664 -224
WIRE 1728 -176 1664 -176
WIRE 1776 -176 1776 -224
WIRE 1776 -176 1728 -176
WIRE 16 -160 -32 -160
WIRE 144 -160 96 -160
WIRE 1728 -160 1728 -176
WIRE 3952 -144 3952 -192
WIRE 4016 -144 3952 -144
WIRE 4064 -144 4064 -192
WIRE 4064 -144 4016 -144
WIRE 224 -128 224 -288
WIRE 272 -128 224 -128
WIRE 336 -128 336 -160
WIRE 2304 -128 2256 -128
WIRE 2432 -128 2384 -128
WIRE 4016 -128 4016 -144
WIRE 6288 -128 6288 -176
WIRE 6352 -128 6288 -128
WIRE 6400 -128 6400 -176
WIRE 6400 -128 6352 -128
WIRE 224 -112 224 -128
WIRE 4640 -112 4592 -112
WIRE 4768 -112 4720 -112
WIRE 6352 -112 6352 -128
WIRE 2512 -96 2512 -256
WIRE 2560 -96 2512 -96
WIRE 2624 -96 2624 -128
WIRE 656 -80 544 -80
WIRE 2512 -80 2512 -96
WIRE 4848 -80 4848 -240
WIRE 4896 -80 4848 -80
WIRE 4960 -80 4960 -112
WIRE 272 -64 272 -128
WIRE 272 -64 224 -64
WIRE 4848 -64 4848 -80
WIRE -128 -48 -192 -48
WIRE -32 -48 -32 -160
WIRE -32 -48 -48 -48
WIRE 16 -48 -32 -48
WIRE 992 -48 912 -48
WIRE 1136 -48 1072 -48
WIRE 2944 -48 2832 -48
WIRE 144 -32 144 -160
WIRE 144 -32 80 -32
WIRE 176 -32 144 -32
WIRE 544 -32 544 -80
WIRE 560 -32 544 -32
WIRE 2560 -32 2560 -96
WIRE 2560 -32 2512 -32
WIRE 5280 -32 5168 -32
WIRE 16 -16 -16 -16
WIRE 656 -16 656 -80
WIRE 656 -16 624 -16
WIRE 736 -16 656 -16
WIRE 1344 -16 1232 -16
WIRE 2160 -16 2096 -16
WIRE 2256 -16 2256 -128
WIRE 2256 -16 2240 -16
WIRE 2304 -16 2256 -16
WIRE 3280 -16 3200 -16
WIRE 3424 -16 3360 -16
WIRE 4896 -16 4896 -80
WIRE 4896 -16 4848 -16
WIRE 224 0 224 -16
WIRE 560 0 224 0
WIRE 2432 0 2432 -128
WIRE 2432 0 2368 0
WIRE 2464 0 2432 0
WIRE 2832 0 2832 -48
WIRE 2848 0 2832 0
WIRE 4496 0 4432 0
WIRE 4592 0 4592 -112
WIRE 4592 0 4576 0
WIRE 4640 0 4592 0
WIRE 5616 0 5536 0
WIRE 5760 0 5696 0
WIRE 224 16 224 0
WIRE 2304 16 2272 16
WIRE 2944 16 2944 -48
WIRE 2944 16 2912 16
WIRE 3024 16 2944 16
WIRE 3632 16 3520 16
WIRE 4768 16 4768 -112
WIRE 4768 16 4704 16
WIRE 4800 16 4768 16
WIRE 5168 16 5168 -32
WIRE 5184 16 5168 16
WIRE -16 32 -16 -16
WIRE 736 32 736 -16
WIRE 816 32 736 32
WIRE 912 32 912 -48
WIRE 912 32 896 32
WIRE 944 32 912 32
WIRE 1232 32 1232 -16
WIRE 1248 32 1232 32
WIRE 2512 32 2512 16
WIRE 2848 32 2512 32
WIRE 4640 32 4608 32
WIRE 5280 32 5280 -32
WIRE 5280 32 5248 32
WIRE 5360 32 5280 32
WIRE 5968 32 5856 32
WIRE 944 48 944 32
WIRE 1008 48 944 48
WIRE 1344 48 1344 -16
WIRE 1344 48 1312 48
WIRE 2512 48 2512 32
WIRE 4848 48 4848 32
WIRE 5184 48 4848 48
WIRE 1136 64 1136 -48
WIRE 1136 64 1072 64
WIRE 1152 64 1136 64
WIRE 1248 64 1216 64
WIRE 2272 64 2272 16
WIRE 3024 64 3024 16
WIRE 3104 64 3024 64
WIRE 3200 64 3200 -16
WIRE 3200 64 3184 64
WIRE 3232 64 3200 64
WIRE 3520 64 3520 16
WIRE 3536 64 3520 64
WIRE 4848 64 4848 48
WIRE 656 80 544 80
WIRE 1008 80 976 80
WIRE 3232 80 3232 64
WIRE 3296 80 3232 80
WIRE 3632 80 3632 16
WIRE 3632 80 3600 80
WIRE 4608 80 4608 32
WIRE 5360 80 5360 32
WIRE 5440 80 5360 80
WIRE 5536 80 5536 0
WIRE 5536 80 5520 80
WIRE 5568 80 5536 80
WIRE 5856 80 5856 32
WIRE 5872 80 5856 80
WIRE 816 96 736 96
WIRE 944 96 944 48
WIRE 944 96 896 96
WIRE 3424 96 3424 -16
WIRE 3424 96 3360 96
WIRE 3440 96 3424 96
WIRE 3536 96 3504 96
WIRE 5568 96 5568 80
WIRE 5632 96 5568 96
WIRE 5968 96 5968 32
WIRE 5968 96 5936 96
WIRE 2944 112 2832 112
WIRE 3296 112 3264 112
WIRE 5760 112 5760 0
WIRE 5760 112 5696 112
WIRE 5776 112 5760 112
WIRE 5872 112 5840 112
WIRE 224 128 224 96
WIRE 544 128 544 80
WIRE 560 128 544 128
WIRE 3104 128 3024 128
WIRE 3232 128 3232 80
WIRE 3232 128 3184 128
WIRE 5280 128 5168 128
WIRE 5632 128 5600 128
WIRE 656 144 656 80
WIRE 656 144 624 144
WIRE 736 144 736 96
WIRE 736 144 656 144
WIRE 976 144 976 80
WIRE 5440 144 5360 144
WIRE 5568 144 5568 96
WIRE 5568 144 5520 144
WIRE 560 160 448 160
WIRE 2512 160 2512 128
WIRE 2832 160 2832 112
WIRE 2848 160 2832 160
WIRE 368 176 256 176
WIRE 2944 176 2944 112
WIRE 2944 176 2912 176
WIRE 3024 176 3024 128
WIRE 3024 176 2944 176
WIRE 3264 176 3264 112
WIRE 4848 176 4848 144
WIRE 5168 176 5168 128
WIRE 5184 176 5168 176
WIRE 2848 192 2736 192
WIRE 5280 192 5280 128
WIRE 5280 192 5248 192
WIRE 5360 192 5360 144
WIRE 5360 192 5280 192
WIRE 5600 192 5600 128
WIRE 2656 208 2544 208
WIRE 5184 208 5072 208
WIRE 368 224 368 176
WIRE 4992 224 4880 224
WIRE 2656 256 2656 208
WIRE 4992 272 4992 224
WIRE -80 304 -128 304
WIRE 48 304 0 304
WIRE 256 336 256 176
WIRE 304 336 256 336
WIRE 368 336 368 304
WIRE 2208 336 2160 336
WIRE 2336 336 2288 336
WIRE 256 352 256 336
WIRE 4544 352 4496 352
WIRE 4672 352 4624 352
WIRE 2544 368 2544 208
WIRE 2592 368 2544 368
WIRE 2656 368 2656 336
WIRE 2544 384 2544 368
WIRE 4880 384 4880 224
WIRE 4928 384 4880 384
WIRE 4992 384 4992 352
WIRE 304 400 304 336
WIRE 304 400 256 400
WIRE 4880 400 4880 384
WIRE -224 416 -288 416
WIRE -128 416 -128 304
WIRE -128 416 -144 416
WIRE -80 416 -128 416
WIRE 48 432 48 304
WIRE 48 432 -16 432
WIRE 208 432 48 432
WIRE 2592 432 2592 368
WIRE 2592 432 2544 432
WIRE -80 448 -112 448
WIRE 2064 448 2000 448
WIRE 2160 448 2160 336
WIRE 2160 448 2144 448
WIRE 2208 448 2160 448
WIRE 4928 448 4928 384
WIRE 4928 448 4880 448
WIRE 256 464 256 448
WIRE 448 464 448 160
WIRE 448 464 256 464
WIRE 2336 464 2336 336
WIRE 2336 464 2272 464
WIRE 2496 464 2336 464
WIRE 4400 464 4336 464
WIRE 4496 464 4496 352
WIRE 4496 464 4480 464
WIRE 4544 464 4496 464
WIRE 256 480 256 464
WIRE 2208 480 2176 480
WIRE 4672 480 4672 352
WIRE 4672 480 4608 480
WIRE 4832 480 4672 480
WIRE -112 496 -112 448
WIRE 2544 496 2544 480
WIRE 2736 496 2736 192
WIRE 2736 496 2544 496
WIRE 4544 496 4512 496
WIRE 2544 512 2544 496
WIRE 4880 512 4880 496
WIRE 5072 512 5072 208
WIRE 5072 512 4880 512
WIRE 2176 528 2176 480
WIRE 4880 528 4880 512
WIRE 4512 544 4512 496
WIRE 256 592 256 560
WIRE 2544 624 2544 592
WIRE 4880 640 4880 608
WIRE 272 672 160 672
WIRE 2560 704 2448 704
WIRE 272 720 272 672
WIRE 4896 720 4784 720
WIRE 2560 752 2560 704
WIRE 4896 768 4896 720
WIRE -128 800 -176 800
WIRE 0 800 -48 800
WIRE 160 832 160 672
WIRE 208 832 160 832
WIRE 272 832 272 800
WIRE 2160 832 2112 832
WIRE 2288 832 2240 832
WIRE 160 848 160 832
WIRE 4496 848 4448 848
WIRE 4624 848 4576 848
WIRE 2448 864 2448 704
WIRE 2496 864 2448 864
WIRE 2560 864 2560 832
WIRE 592 880 480 880
WIRE 2448 880 2448 864
WIRE 4784 880 4784 720
WIRE 4832 880 4784 880
WIRE 4896 880 4896 848
WIRE 208 896 208 832
WIRE 208 896 160 896
WIRE 4784 896 4784 880
WIRE -272 912 -336 912
WIRE -176 912 -176 800
WIRE -176 912 -192 912
WIRE -128 912 -176 912
WIRE 2880 912 2768 912
WIRE 0 928 0 800
WIRE 0 928 -64 928
WIRE 112 928 0 928
WIRE 480 928 480 880
WIRE 496 928 480 928
WIRE 2496 928 2496 864
WIRE 2496 928 2448 928
WIRE 5216 928 5104 928
WIRE -128 944 -160 944
WIRE 592 944 592 880
WIRE 592 944 560 944
WIRE 720 944 592 944
WIRE 944 944 944 96
WIRE 944 944 800 944
WIRE 2016 944 1952 944
WIRE 2112 944 2112 832
WIRE 2112 944 2096 944
WIRE 2160 944 2112 944
WIRE 4832 944 4832 880
WIRE 4832 944 4784 944
WIRE 160 960 160 944
WIRE 496 960 160 960
WIRE 2288 960 2288 832
WIRE 2288 960 2224 960
WIRE 2400 960 2288 960
WIRE 2768 960 2768 912
WIRE 2784 960 2768 960
WIRE 4352 960 4288 960
WIRE 4448 960 4448 848
WIRE 4448 960 4432 960
WIRE 4496 960 4448 960
WIRE 160 976 160 960
WIRE 2160 976 2128 976
WIRE 2880 976 2880 912
WIRE 2880 976 2848 976
WIRE 3008 976 2880 976
WIRE 3232 976 3232 128
WIRE 3232 976 3088 976
WIRE 4624 976 4624 848
WIRE 4624 976 4560 976
WIRE 4736 976 4624 976
WIRE 5104 976 5104 928
WIRE 5120 976 5104 976
WIRE -160 992 -160 944
WIRE 2448 992 2448 976
WIRE 2784 992 2448 992
WIRE 4496 992 4464 992
WIRE 5216 992 5216 928
WIRE 5216 992 5184 992
WIRE 5344 992 5216 992
WIRE 5568 992 5568 144
WIRE 5568 992 5424 992
WIRE 2448 1008 2448 992
WIRE 4784 1008 4784 992
WIRE 5120 1008 4784 1008
WIRE 2128 1024 2128 976
WIRE 4784 1024 4784 1008
WIRE 592 1040 480 1040
WIRE 720 1040 592 1040
WIRE 944 1040 944 944
WIRE 944 1040 800 1040
WIRE 4464 1040 4464 992
WIRE 2880 1072 2768 1072
WIRE 3008 1072 2880 1072
WIRE 3232 1072 3232 976
WIRE 3232 1072 3088 1072
WIRE 160 1088 160 1056
WIRE 480 1088 480 1040
WIRE 496 1088 480 1088
WIRE 5216 1088 5104 1088
WIRE 5344 1088 5216 1088
WIRE 5568 1088 5568 992
WIRE 5568 1088 5424 1088
WIRE 592 1104 592 1040
WIRE 592 1104 560 1104
WIRE 496 1120 384 1120
WIRE 2448 1120 2448 1088
WIRE 2768 1120 2768 1072
WIRE 2784 1120 2768 1120
WIRE 304 1136 192 1136
WIRE 2880 1136 2880 1072
WIRE 2880 1136 2848 1136
WIRE 4784 1136 4784 1104
WIRE 5104 1136 5104 1088
WIRE 5120 1136 5104 1136
WIRE 2784 1152 2672 1152
WIRE 5216 1152 5216 1088
WIRE 5216 1152 5184 1152
WIRE 2592 1168 2480 1168
WIRE 5120 1168 5008 1168
WIRE 304 1184 304 1136
WIRE 4928 1184 4816 1184
WIRE 2592 1216 2592 1168
WIRE 4928 1232 4928 1184
WIRE -144 1264 -192 1264
WIRE -16 1264 -64 1264
WIRE 192 1296 192 1136
WIRE 240 1296 192 1296
WIRE 304 1296 304 1264
WIRE 2144 1296 2096 1296
WIRE 2272 1296 2224 1296
WIRE 192 1312 192 1296
WIRE 4480 1312 4432 1312
WIRE 4608 1312 4560 1312
WIRE 2480 1328 2480 1168
WIRE 2528 1328 2480 1328
WIRE 2592 1328 2592 1296
WIRE 2480 1344 2480 1328
WIRE 4816 1344 4816 1184
WIRE 4864 1344 4816 1344
WIRE 4928 1344 4928 1312
WIRE 240 1360 240 1296
WIRE 240 1360 192 1360
WIRE 4816 1360 4816 1344
WIRE -288 1376 -352 1376
WIRE -192 1376 -192 1264
WIRE -192 1376 -208 1376
WIRE -144 1376 -192 1376
WIRE -16 1392 -16 1264
WIRE -16 1392 -80 1392
WIRE 144 1392 -16 1392
WIRE 2528 1392 2528 1328
WIRE 2528 1392 2480 1392
WIRE -144 1408 -176 1408
WIRE 2000 1408 1936 1408
WIRE 2096 1408 2096 1296
WIRE 2096 1408 2080 1408
WIRE 2144 1408 2096 1408
WIRE 4864 1408 4864 1344
WIRE 4864 1408 4816 1408
WIRE 192 1424 192 1408
WIRE 384 1424 384 1120
WIRE 384 1424 192 1424
WIRE 2272 1424 2272 1296
WIRE 2272 1424 2208 1424
WIRE 2432 1424 2272 1424
WIRE 4336 1424 4272 1424
WIRE 4432 1424 4432 1312
WIRE 4432 1424 4416 1424
WIRE 4480 1424 4432 1424
WIRE 192 1440 192 1424
WIRE 2144 1440 2112 1440
WIRE 4608 1440 4608 1312
WIRE 4608 1440 4544 1440
WIRE 4768 1440 4608 1440
WIRE -176 1456 -176 1408
WIRE 2480 1456 2480 1440
WIRE 2672 1456 2672 1152
WIRE 2672 1456 2480 1456
WIRE 4480 1456 4448 1456
WIRE 2480 1472 2480 1456
WIRE 4816 1472 4816 1456
WIRE 5008 1472 5008 1168
WIRE 5008 1472 4816 1472
WIRE 2112 1488 2112 1440
WIRE 4816 1488 4816 1472
WIRE 4448 1504 4448 1456
WIRE 192 1552 192 1520
WIRE 2480 1584 2480 1552
WIRE 4816 1600 4816 1568
WIRE 288 1648 176 1648
WIRE 2576 1680 2464 1680
WIRE 288 1696 288 1648
WIRE 4912 1696 4800 1696
WIRE 2576 1728 2576 1680
WIRE 4912 1744 4912 1696
WIRE -112 1776 -160 1776
WIRE 16 1776 -32 1776
WIRE 176 1808 176 1648
WIRE 224 1808 176 1808
WIRE 288 1808 288 1776
WIRE 2176 1808 2128 1808
WIRE 2304 1808 2256 1808
WIRE 176 1824 176 1808
WIRE 4512 1824 4464 1824
WIRE 4640 1824 4592 1824
WIRE 2464 1840 2464 1680
WIRE 2512 1840 2464 1840
WIRE 2576 1840 2576 1808
WIRE 608 1856 496 1856
WIRE 2464 1856 2464 1840
WIRE 4800 1856 4800 1696
WIRE 4848 1856 4800 1856
WIRE 4912 1856 4912 1824
WIRE 224 1872 224 1808
WIRE 224 1872 176 1872
WIRE 4800 1872 4800 1856
WIRE -256 1888 -320 1888
WIRE -160 1888 -160 1776
WIRE -160 1888 -176 1888
WIRE -112 1888 -160 1888
WIRE 2896 1888 2784 1888
WIRE 16 1904 16 1776
WIRE 16 1904 -48 1904
WIRE 128 1904 16 1904
WIRE 496 1904 496 1856
WIRE 512 1904 496 1904
WIRE 2512 1904 2512 1840
WIRE 2512 1904 2464 1904
WIRE 5232 1904 5120 1904
WIRE -112 1920 -144 1920
WIRE 608 1920 608 1856
WIRE 608 1920 576 1920
WIRE 704 1920 608 1920
WIRE 944 1920 944 1040
WIRE 944 1920 784 1920
WIRE 2032 1920 1968 1920
WIRE 2128 1920 2128 1808
WIRE 2128 1920 2112 1920
WIRE 2176 1920 2128 1920
WIRE 4848 1920 4848 1856
WIRE 4848 1920 4800 1920
WIRE 176 1936 176 1920
WIRE 512 1936 176 1936
WIRE 2304 1936 2304 1808
WIRE 2304 1936 2240 1936
WIRE 2416 1936 2304 1936
WIRE 2784 1936 2784 1888
WIRE 2800 1936 2784 1936
WIRE 4368 1936 4304 1936
WIRE 4464 1936 4464 1824
WIRE 4464 1936 4448 1936
WIRE 4512 1936 4464 1936
WIRE 176 1952 176 1936
WIRE 2176 1952 2144 1952
WIRE 2896 1952 2896 1888
WIRE 2896 1952 2864 1952
WIRE 2992 1952 2896 1952
WIRE 3232 1952 3232 1072
WIRE 3232 1952 3072 1952
WIRE 4640 1952 4640 1824
WIRE 4640 1952 4576 1952
WIRE 4752 1952 4640 1952
WIRE 5120 1952 5120 1904
WIRE 5136 1952 5120 1952
WIRE -144 1968 -144 1920
WIRE 2464 1968 2464 1952
WIRE 2800 1968 2464 1968
WIRE 4512 1968 4480 1968
WIRE 5232 1968 5232 1904
WIRE 5232 1968 5200 1968
WIRE 5328 1968 5232 1968
WIRE 5568 1968 5568 1088
WIRE 5568 1968 5408 1968
WIRE 2464 1984 2464 1968
WIRE 4800 1984 4800 1968
WIRE 5136 1984 4800 1984
WIRE 2144 2000 2144 1952
WIRE 4800 2000 4800 1984
WIRE 608 2016 496 2016
WIRE 4480 2016 4480 1968
WIRE 2896 2048 2784 2048
WIRE 176 2064 176 2032
WIRE 496 2064 496 2016
WIRE 512 2064 496 2064
WIRE 5232 2064 5120 2064
WIRE 608 2080 608 2016
WIRE 608 2080 576 2080
WIRE 704 2080 608 2080
WIRE 944 2080 944 1920
WIRE 944 2080 784 2080
WIRE 512 2096 400 2096
WIRE 2464 2096 2464 2064
WIRE 2784 2096 2784 2048
WIRE 2800 2096 2784 2096
WIRE 320 2112 208 2112
WIRE 2896 2112 2896 2048
WIRE 2896 2112 2864 2112
WIRE 2992 2112 2896 2112
WIRE 3232 2112 3232 1952
WIRE 3232 2112 3072 2112
WIRE 4800 2112 4800 2080
WIRE 5120 2112 5120 2064
WIRE 5136 2112 5120 2112
WIRE 2800 2128 2688 2128
WIRE 5232 2128 5232 2064
WIRE 5232 2128 5200 2128
WIRE 5328 2128 5232 2128
WIRE 5568 2128 5568 1968
WIRE 5568 2128 5408 2128
WIRE 2608 2144 2496 2144
WIRE 5136 2144 5024 2144
WIRE 320 2160 320 2112
WIRE 4944 2160 4832 2160
WIRE 2608 2192 2608 2144
WIRE 4944 2208 4944 2160
WIRE -128 2240 -176 2240
WIRE 0 2240 -48 2240
WIRE 208 2272 208 2112
WIRE 256 2272 208 2272
WIRE 320 2272 320 2240
WIRE 2160 2272 2112 2272
WIRE 2288 2272 2240 2272
WIRE 208 2288 208 2272
WIRE 4496 2288 4448 2288
WIRE 4624 2288 4576 2288
WIRE 2496 2304 2496 2144
WIRE 2544 2304 2496 2304
WIRE 2608 2304 2608 2272
WIRE 2496 2320 2496 2304
WIRE 4832 2320 4832 2160
WIRE 4880 2320 4832 2320
WIRE 4944 2320 4944 2288
WIRE 256 2336 256 2272
WIRE 256 2336 208 2336
WIRE 4832 2336 4832 2320
WIRE -272 2352 -336 2352
WIRE -176 2352 -176 2240
WIRE -176 2352 -192 2352
WIRE -128 2352 -176 2352
WIRE 0 2368 0 2240
WIRE 0 2368 -64 2368
WIRE 160 2368 0 2368
WIRE 2544 2368 2544 2304
WIRE 2544 2368 2496 2368
WIRE -128 2384 -160 2384
WIRE 2016 2384 1952 2384
WIRE 2112 2384 2112 2272
WIRE 2112 2384 2096 2384
WIRE 2160 2384 2112 2384
WIRE 4880 2384 4880 2320
WIRE 4880 2384 4832 2384
WIRE 208 2400 208 2384
WIRE 400 2400 400 2096
WIRE 400 2400 208 2400
WIRE 2288 2400 2288 2272
WIRE 2288 2400 2224 2400
WIRE 2448 2400 2288 2400
WIRE 4352 2400 4288 2400
WIRE 4448 2400 4448 2288
WIRE 4448 2400 4432 2400
WIRE 4496 2400 4448 2400
WIRE 208 2416 208 2400
WIRE 2160 2416 2128 2416
WIRE 4624 2416 4624 2288
WIRE 4624 2416 4560 2416
WIRE 4784 2416 4624 2416
WIRE -160 2432 -160 2384
WIRE 2496 2432 2496 2416
WIRE 2688 2432 2688 2128
WIRE 2688 2432 2496 2432
WIRE 4496 2432 4464 2432
WIRE 2496 2448 2496 2432
WIRE 4832 2448 4832 2432
WIRE 5024 2448 5024 2144
WIRE 5024 2448 4832 2448
WIRE 2128 2464 2128 2416
WIRE 4832 2464 4832 2448
WIRE 4464 2480 4464 2432
WIRE 208 2528 208 2496
WIRE 2496 2560 2496 2528
WIRE 4832 2576 4832 2544
WIRE 240 2608 128 2608
WIRE 2528 2640 2416 2640
WIRE 240 2656 240 2608
WIRE 4864 2656 4752 2656
WIRE 2528 2688 2528 2640
WIRE 4864 2704 4864 2656
WIRE -144 2736 -192 2736
WIRE -16 2736 -64 2736
WIRE 128 2768 128 2608
WIRE 176 2768 128 2768
WIRE 240 2768 240 2736
WIRE 2144 2768 2096 2768
WIRE 2272 2768 2224 2768
WIRE 128 2784 128 2768
WIRE 4480 2784 4432 2784
WIRE 4608 2784 4560 2784
WIRE 2416 2800 2416 2640
WIRE 2464 2800 2416 2800
WIRE 2528 2800 2528 2768
WIRE 560 2816 448 2816
WIRE 2416 2816 2416 2800
WIRE 4752 2816 4752 2656
WIRE 4800 2816 4752 2816
WIRE 4864 2816 4864 2784
WIRE 176 2832 176 2768
WIRE 176 2832 128 2832
WIRE 4752 2832 4752 2816
WIRE -288 2848 -352 2848
WIRE -192 2848 -192 2736
WIRE -192 2848 -208 2848
WIRE -144 2848 -192 2848
WIRE 2848 2848 2736 2848
WIRE -16 2864 -16 2736
WIRE -16 2864 -80 2864
WIRE 80 2864 -16 2864
WIRE 448 2864 448 2816
WIRE 464 2864 448 2864
WIRE 2464 2864 2464 2800
WIRE 2464 2864 2416 2864
WIRE 5184 2864 5072 2864
WIRE -144 2880 -176 2880
WIRE 560 2880 560 2816
WIRE 560 2880 528 2880
WIRE 688 2880 560 2880
WIRE 944 2880 944 2080
WIRE 944 2880 768 2880
WIRE 2000 2880 1936 2880
WIRE 2096 2880 2096 2768
WIRE 2096 2880 2080 2880
WIRE 2144 2880 2096 2880
WIRE 4800 2880 4800 2816
WIRE 4800 2880 4752 2880
WIRE 128 2896 128 2880
WIRE 464 2896 128 2896
WIRE 2272 2896 2272 2768
WIRE 2272 2896 2208 2896
WIRE 2368 2896 2272 2896
WIRE 2736 2896 2736 2848
WIRE 2752 2896 2736 2896
WIRE 4336 2896 4272 2896
WIRE 4432 2896 4432 2784
WIRE 4432 2896 4416 2896
WIRE 4480 2896 4432 2896
WIRE 128 2912 128 2896
WIRE 2144 2912 2112 2912
WIRE 2848 2912 2848 2848
WIRE 2848 2912 2816 2912
WIRE 2976 2912 2848 2912
WIRE 3232 2912 3232 2112
WIRE 3232 2912 3056 2912
WIRE 4608 2912 4608 2784
WIRE 4608 2912 4544 2912
WIRE 4704 2912 4608 2912
WIRE 5072 2912 5072 2864
WIRE 5088 2912 5072 2912
WIRE -176 2928 -176 2880
WIRE 2416 2928 2416 2912
WIRE 2752 2928 2416 2928
WIRE 4480 2928 4448 2928
WIRE 5184 2928 5184 2864
WIRE 5184 2928 5152 2928
WIRE 5312 2928 5184 2928
WIRE 5568 2928 5568 2128
WIRE 5568 2928 5392 2928
WIRE 2416 2944 2416 2928
WIRE 4752 2944 4752 2928
WIRE 5088 2944 4752 2944
WIRE 2112 2960 2112 2912
WIRE 4752 2960 4752 2944
WIRE 560 2976 448 2976
WIRE 4448 2976 4448 2928
WIRE 2848 3008 2736 3008
WIRE 128 3024 128 2992
WIRE 448 3024 448 2976
WIRE 464 3024 448 3024
WIRE 5184 3024 5072 3024
WIRE 560 3040 560 2976
WIRE 560 3040 528 3040
WIRE 688 3040 560 3040
WIRE 944 3040 944 2880
WIRE 944 3040 768 3040
WIRE 464 3056 352 3056
WIRE 2416 3056 2416 3024
WIRE 2736 3056 2736 3008
WIRE 2752 3056 2736 3056
WIRE 272 3072 160 3072
WIRE 2848 3072 2848 3008
WIRE 2848 3072 2816 3072
WIRE 2976 3072 2848 3072
WIRE 3232 3072 3232 2912
WIRE 3232 3072 3056 3072
WIRE 4752 3072 4752 3040
WIRE 5072 3072 5072 3024
WIRE 5088 3072 5072 3072
WIRE 2752 3088 2640 3088
WIRE 5184 3088 5184 3024
WIRE 5184 3088 5152 3088
WIRE 5312 3088 5184 3088
WIRE 5568 3088 5568 2928
WIRE 5568 3088 5392 3088
WIRE 2560 3104 2448 3104
WIRE 5088 3104 4976 3104
WIRE 272 3120 272 3072
WIRE 4896 3120 4784 3120
WIRE 2560 3152 2560 3104
WIRE 4896 3168 4896 3120
WIRE -128 3200 -176 3200
WIRE 0 3200 -48 3200
WIRE 160 3232 160 3072
WIRE 208 3232 160 3232
WIRE 272 3232 272 3200
WIRE 2160 3232 2112 3232
WIRE 2288 3232 2240 3232
WIRE 160 3248 160 3232
WIRE 4496 3248 4448 3248
WIRE 4624 3248 4576 3248
WIRE 2448 3264 2448 3104
WIRE 2496 3264 2448 3264
WIRE 2560 3264 2560 3232
WIRE 2448 3280 2448 3264
WIRE 4784 3280 4784 3120
WIRE 4832 3280 4784 3280
WIRE 4896 3280 4896 3248
WIRE 208 3296 208 3232
WIRE 208 3296 160 3296
WIRE 4784 3296 4784 3280
WIRE -272 3312 -336 3312
WIRE -176 3312 -176 3200
WIRE -176 3312 -192 3312
WIRE -128 3312 -176 3312
WIRE 0 3328 0 3200
WIRE 0 3328 -64 3328
WIRE 112 3328 0 3328
WIRE 2496 3328 2496 3264
WIRE 2496 3328 2448 3328
WIRE -128 3344 -160 3344
WIRE 2016 3344 1952 3344
WIRE 2112 3344 2112 3232
WIRE 2112 3344 2096 3344
WIRE 2160 3344 2112 3344
WIRE 4832 3344 4832 3280
WIRE 4832 3344 4784 3344
WIRE 160 3360 160 3344
WIRE 352 3360 352 3056
WIRE 352 3360 160 3360
WIRE 2288 3360 2288 3232
WIRE 2288 3360 2224 3360
WIRE 2400 3360 2288 3360
WIRE 4352 3360 4288 3360
WIRE 4448 3360 4448 3248
WIRE 4448 3360 4432 3360
WIRE 4496 3360 4448 3360
WIRE 160 3376 160 3360
WIRE 2160 3376 2128 3376
WIRE 4624 3376 4624 3248
WIRE 4624 3376 4560 3376
WIRE 4736 3376 4624 3376
WIRE -160 3392 -160 3344
WIRE 2448 3392 2448 3376
WIRE 2640 3392 2640 3088
WIRE 2640 3392 2448 3392
WIRE 4496 3392 4464 3392
WIRE 2448 3408 2448 3392
WIRE 4784 3408 4784 3392
WIRE 4976 3408 4976 3104
WIRE 4976 3408 4784 3408
WIRE 2128 3424 2128 3376
WIRE 4784 3424 4784 3408
WIRE 4464 3440 4464 3392
WIRE 160 3488 160 3456
WIRE 2448 3520 2448 3488
WIRE 4784 3536 4784 3504
WIRE 208 3568 96 3568
WIRE 2496 3600 2384 3600
WIRE 208 3616 208 3568
WIRE 4832 3616 4720 3616
WIRE 2496 3648 2496 3600
WIRE 4832 3664 4832 3616
WIRE -192 3696 -240 3696
WIRE -64 3696 -112 3696
WIRE 96 3728 96 3568
WIRE 144 3728 96 3728
WIRE 208 3728 208 3696
WIRE 2096 3728 2048 3728
WIRE 2224 3728 2176 3728
WIRE 96 3744 96 3728
WIRE 4432 3744 4384 3744
WIRE 4560 3744 4512 3744
WIRE 2384 3760 2384 3600
WIRE 2432 3760 2384 3760
WIRE 2496 3760 2496 3728
WIRE 528 3776 416 3776
WIRE 2384 3776 2384 3760
WIRE 4720 3776 4720 3616
WIRE 4768 3776 4720 3776
WIRE 4832 3776 4832 3744
WIRE 144 3792 144 3728
WIRE 144 3792 96 3792
WIRE 4720 3792 4720 3776
WIRE -336 3808 -400 3808
WIRE -240 3808 -240 3696
WIRE -240 3808 -256 3808
WIRE -192 3808 -240 3808
WIRE 2816 3808 2704 3808
WIRE -64 3824 -64 3696
WIRE -64 3824 -128 3824
WIRE 48 3824 -64 3824
WIRE 416 3824 416 3776
WIRE 432 3824 416 3824
WIRE 2432 3824 2432 3760
WIRE 2432 3824 2384 3824
WIRE 5152 3824 5040 3824
WIRE -192 3840 -224 3840
WIRE 528 3840 528 3776
WIRE 528 3840 496 3840
WIRE 672 3840 528 3840
WIRE 944 3840 944 3040
WIRE 944 3840 752 3840
WIRE 1952 3840 1888 3840
WIRE 2048 3840 2048 3728
WIRE 2048 3840 2032 3840
WIRE 2096 3840 2048 3840
WIRE 4768 3840 4768 3776
WIRE 4768 3840 4720 3840
WIRE 96 3856 96 3840
WIRE 432 3856 96 3856
WIRE 2224 3856 2224 3728
WIRE 2224 3856 2160 3856
WIRE 2336 3856 2224 3856
WIRE 2704 3856 2704 3808
WIRE 2720 3856 2704 3856
WIRE 4288 3856 4224 3856
WIRE 4384 3856 4384 3744
WIRE 4384 3856 4368 3856
WIRE 4432 3856 4384 3856
WIRE 96 3872 96 3856
WIRE 2096 3872 2064 3872
WIRE 2816 3872 2816 3808
WIRE 2816 3872 2784 3872
WIRE 2960 3872 2816 3872
WIRE 3232 3872 3232 3072
WIRE 3232 3872 3040 3872
WIRE 4560 3872 4560 3744
WIRE 4560 3872 4496 3872
WIRE 4672 3872 4560 3872
WIRE 5040 3872 5040 3824
WIRE 5056 3872 5040 3872
WIRE -224 3888 -224 3840
WIRE 2384 3888 2384 3872
WIRE 2720 3888 2384 3888
WIRE 4432 3888 4400 3888
WIRE 5152 3888 5152 3824
WIRE 5152 3888 5120 3888
WIRE 5296 3888 5152 3888
WIRE 5568 3888 5568 3088
WIRE 5568 3888 5376 3888
WIRE 2384 3904 2384 3888
WIRE 4720 3904 4720 3888
WIRE 5056 3904 4720 3904
WIRE 2064 3920 2064 3872
WIRE 4720 3920 4720 3904
WIRE 528 3936 416 3936
WIRE 4400 3936 4400 3888
WIRE 2816 3968 2704 3968
WIRE 96 3984 96 3952
WIRE 416 3984 416 3936
WIRE 432 3984 416 3984
WIRE 5152 3984 5040 3984
WIRE 528 4000 528 3936
WIRE 528 4000 496 4000
WIRE 672 4000 528 4000
WIRE 944 4000 944 3840
WIRE 944 4000 752 4000
WIRE 432 4016 320 4016
WIRE 2384 4016 2384 3984
WIRE 2704 4016 2704 3968
WIRE 2720 4016 2704 4016
WIRE 240 4032 128 4032
WIRE 2816 4032 2816 3968
WIRE 2816 4032 2784 4032
WIRE 2960 4032 2816 4032
WIRE 3232 4032 3232 3872
WIRE 3232 4032 3040 4032
WIRE 4720 4032 4720 4000
WIRE 5040 4032 5040 3984
WIRE 5056 4032 5040 4032
WIRE 2720 4048 2608 4048
WIRE 5152 4048 5152 3984
WIRE 5152 4048 5120 4048
WIRE 5296 4048 5152 4048
WIRE 5568 4048 5568 3888
WIRE 5568 4048 5376 4048
WIRE 2528 4064 2416 4064
WIRE 5056 4064 4944 4064
WIRE 240 4080 240 4032
WIRE 4864 4080 4752 4080
WIRE 2528 4112 2528 4064
WIRE 4864 4128 4864 4080
WIRE -144 4160 -192 4160
WIRE -16 4160 -64 4160
WIRE 128 4192 128 4032
WIRE 176 4192 128 4192
WIRE 240 4192 240 4160
WIRE 2144 4192 2096 4192
WIRE 2272 4192 2224 4192
WIRE 128 4208 128 4192
WIRE 4480 4208 4432 4208
WIRE 4608 4208 4560 4208
WIRE 2416 4224 2416 4064
WIRE 2464 4224 2416 4224
WIRE 2528 4224 2528 4192
WIRE 2416 4240 2416 4224
WIRE 4752 4240 4752 4080
WIRE 4800 4240 4752 4240
WIRE 4864 4240 4864 4208
WIRE 176 4256 176 4192
WIRE 176 4256 128 4256
WIRE 4752 4256 4752 4240
WIRE -288 4272 -352 4272
WIRE -192 4272 -192 4160
WIRE -192 4272 -208 4272
WIRE -144 4272 -192 4272
WIRE -16 4288 -16 4160
WIRE -16 4288 -80 4288
WIRE 80 4288 -16 4288
WIRE 2464 4288 2464 4224
WIRE 2464 4288 2416 4288
WIRE -144 4304 -176 4304
WIRE 2000 4304 1936 4304
WIRE 2096 4304 2096 4192
WIRE 2096 4304 2080 4304
WIRE 2144 4304 2096 4304
WIRE 4800 4304 4800 4240
WIRE 4800 4304 4752 4304
WIRE 128 4320 128 4304
WIRE 320 4320 320 4016
WIRE 320 4320 128 4320
WIRE 2272 4320 2272 4192
WIRE 2272 4320 2208 4320
WIRE 2368 4320 2272 4320
WIRE 4336 4320 4272 4320
WIRE 4432 4320 4432 4208
WIRE 4432 4320 4416 4320
WIRE 4480 4320 4432 4320
WIRE 128 4336 128 4320
WIRE 2144 4336 2112 4336
WIRE 4608 4336 4608 4208
WIRE 4608 4336 4544 4336
WIRE 4704 4336 4608 4336
WIRE -176 4352 -176 4304
WIRE 2416 4352 2416 4336
WIRE 2608 4352 2608 4048
WIRE 2608 4352 2416 4352
WIRE 4480 4352 4448 4352
WIRE 2416 4368 2416 4352
WIRE 4752 4368 4752 4352
WIRE 4944 4368 4944 4064
WIRE 4944 4368 4752 4368
WIRE 2112 4384 2112 4336
WIRE 4752 4384 4752 4368
WIRE 4448 4400 4448 4352
WIRE 128 4448 128 4416
WIRE 2416 4480 2416 4448
WIRE 4752 4496 4752 4464
WIRE 144 4544 32 4544
WIRE 2432 4576 2320 4576
WIRE 144 4592 144 4544
WIRE 4768 4592 4656 4592
WIRE 2432 4624 2432 4576
WIRE 4768 4640 4768 4592
WIRE -240 4672 -288 4672
WIRE -112 4672 -160 4672
WIRE 32 4704 32 4544
WIRE 80 4704 32 4704
WIRE 144 4704 144 4672
WIRE 2048 4704 2000 4704
WIRE 2176 4704 2128 4704
WIRE 32 4720 32 4704
WIRE 4384 4720 4336 4720
WIRE 4512 4720 4464 4720
WIRE 2320 4736 2320 4576
WIRE 2368 4736 2320 4736
WIRE 2432 4736 2432 4704
WIRE 464 4752 352 4752
WIRE 2320 4752 2320 4736
WIRE 4656 4752 4656 4592
WIRE 4704 4752 4656 4752
WIRE 4768 4752 4768 4720
WIRE 80 4768 80 4704
WIRE 80 4768 32 4768
WIRE 4656 4768 4656 4752
WIRE -384 4784 -448 4784
WIRE -288 4784 -288 4672
WIRE -288 4784 -304 4784
WIRE -240 4784 -288 4784
WIRE 2752 4784 2640 4784
WIRE -112 4800 -112 4672
WIRE -112 4800 -176 4800
WIRE -16 4800 -112 4800
WIRE 352 4800 352 4752
WIRE 368 4800 352 4800
WIRE 2368 4800 2368 4736
WIRE 2368 4800 2320 4800
WIRE 5088 4800 4976 4800
WIRE -240 4816 -272 4816
WIRE 464 4816 464 4752
WIRE 464 4816 432 4816
WIRE 672 4816 464 4816
WIRE 944 4816 944 4000
WIRE 944 4816 752 4816
WIRE 1904 4816 1840 4816
WIRE 2000 4816 2000 4704
WIRE 2000 4816 1984 4816
WIRE 2048 4816 2000 4816
WIRE 4704 4816 4704 4752
WIRE 4704 4816 4656 4816
WIRE 32 4832 32 4816
WIRE 368 4832 32 4832
WIRE 2176 4832 2176 4704
WIRE 2176 4832 2112 4832
WIRE 2272 4832 2176 4832
WIRE 2640 4832 2640 4784
WIRE 2656 4832 2640 4832
WIRE 4240 4832 4176 4832
WIRE 4336 4832 4336 4720
WIRE 4336 4832 4320 4832
WIRE 4384 4832 4336 4832
WIRE 32 4848 32 4832
WIRE 2048 4848 2016 4848
WIRE 2752 4848 2752 4784
WIRE 2752 4848 2720 4848
WIRE 2960 4848 2752 4848
WIRE 3232 4848 3232 4032
WIRE 3232 4848 3040 4848
WIRE 4512 4848 4512 4720
WIRE 4512 4848 4448 4848
WIRE 4608 4848 4512 4848
WIRE 4976 4848 4976 4800
WIRE 4992 4848 4976 4848
WIRE -272 4864 -272 4816
WIRE 2320 4864 2320 4848
WIRE 2656 4864 2320 4864
WIRE 4384 4864 4352 4864
WIRE 5088 4864 5088 4800
WIRE 5088 4864 5056 4864
WIRE 5296 4864 5088 4864
WIRE 5568 4864 5568 4048
WIRE 5568 4864 5376 4864
WIRE 2320 4880 2320 4864
WIRE 4656 4880 4656 4864
WIRE 4992 4880 4656 4880
WIRE 2016 4896 2016 4848
WIRE 4656 4896 4656 4880
WIRE 464 4912 352 4912
WIRE 4352 4912 4352 4864
WIRE 2752 4944 2640 4944
WIRE 32 4960 32 4928
WIRE 352 4960 352 4912
WIRE 368 4960 352 4960
WIRE 5088 4960 4976 4960
WIRE 464 4976 464 4912
WIRE 464 4976 432 4976
WIRE 672 4976 464 4976
WIRE 944 4976 944 4816
WIRE 944 4976 752 4976
WIRE 368 4992 256 4992
WIRE 2320 4992 2320 4960
WIRE 2640 4992 2640 4944
WIRE 2656 4992 2640 4992
WIRE 176 5008 64 5008
WIRE 2752 5008 2752 4944
WIRE 2752 5008 2720 5008
WIRE 2960 5008 2752 5008
WIRE 3232 5008 3232 4848
WIRE 3232 5008 3040 5008
WIRE 4656 5008 4656 4976
WIRE 4976 5008 4976 4960
WIRE 4992 5008 4976 5008
WIRE 2656 5024 2544 5024
WIRE 5088 5024 5088 4960
WIRE 5088 5024 5056 5024
WIRE 5296 5024 5088 5024
WIRE 5568 5024 5568 4864
WIRE 5568 5024 5376 5024
WIRE 2464 5040 2352 5040
WIRE 4992 5040 4880 5040
WIRE 176 5056 176 5008
WIRE 4800 5056 4688 5056
WIRE 2464 5088 2464 5040
WIRE 4800 5104 4800 5056
WIRE -208 5136 -256 5136
WIRE -80 5136 -128 5136
WIRE 64 5168 64 5008
WIRE 112 5168 64 5168
WIRE 176 5168 176 5136
WIRE 2080 5168 2032 5168
WIRE 2208 5168 2160 5168
WIRE 64 5184 64 5168
WIRE 4416 5184 4368 5184
WIRE 4544 5184 4496 5184
WIRE 2352 5200 2352 5040
WIRE 2400 5200 2352 5200
WIRE 2464 5200 2464 5168
WIRE 2352 5216 2352 5200
WIRE 4688 5216 4688 5056
WIRE 4736 5216 4688 5216
WIRE 4800 5216 4800 5184
WIRE 112 5232 112 5168
WIRE 112 5232 64 5232
WIRE 4688 5232 4688 5216
WIRE -352 5248 -416 5248
WIRE -256 5248 -256 5136
WIRE -256 5248 -272 5248
WIRE -208 5248 -256 5248
WIRE -80 5264 -80 5136
WIRE -80 5264 -144 5264
WIRE 16 5264 -80 5264
WIRE 2400 5264 2400 5200
WIRE 2400 5264 2352 5264
WIRE -208 5280 -240 5280
WIRE 1936 5280 1872 5280
WIRE 2032 5280 2032 5168